@<TRIPOS>MOLECULE
3htb_ligand_2
22 22 1
SMALL
GASTEIGER


@<TRIPOS>ATOM
      1 C4         24.2940  -24.1240   -0.0710 C.3     166 JZ4167      0.0000
      2 C14        23.9250  -24.7040   -1.3940 C.3     166 JZ4167      0.0000
      3 H41        23.5097  -23.4247    0.2544 H       166 JZ4167      0.0000
      4 H42        24.3944  -24.9321    0.6685 H       166 JZ4167      0.0000
      5 H43        25.2501  -23.5873   -0.1597 H       166 JZ4167      0.0000
      6 C13        22.4630  -24.4140   -1.8080 C.3     166 JZ4167      0.0000
      7 H141       24.0766  -25.7919   -1.3349 H       166 JZ4167      0.0000
      8 H142       24.6063  -24.2791   -2.1458 H       166 JZ4167      0.0000
      9 C12        22.2940  -25.1870   -3.0750 C.ar    166 JZ4167      0.0000
     10 H131       21.7509  -24.7677   -1.0479 H       166 JZ4167      0.0000
     11 H132       22.3009  -23.3416   -1.9914 H       166 JZ4167      0.0000
     12 C10        22.7690  -24.7300   -4.2950 C.ar    166 JZ4167      0.0000
     13 C11        21.6930  -26.4590   -2.9540 C.ar    166 JZ4167      0.0000
     14 C9         22.6710  -25.5120   -5.4480 C.ar    166 JZ4167      0.0000
     15 OAB        23.4120  -23.5360   -4.3420 O.3     166 JZ4167      0.0000
     16 C7         21.5530  -27.2140   -4.1120 C.ar    166 JZ4167      0.0000
     17 H11        21.3538  -26.8322   -1.9944 H       166 JZ4167      0.0000
     18 C8         22.0680  -26.7470   -5.3310 C.ar    166 JZ4167      0.0000
     19 H9         23.0545  -25.1615   -6.3994 H       166 JZ4167      0.0000
     20 HAB        22.7200  -22.8852   -4.3505 H       166 JZ4167      0.0000
     21 H7         21.0428  -28.1697   -4.0736 H       166 JZ4167      0.0000
     22 H8         21.9894  -27.3774   -6.2093 H       166 JZ4167      0.0000
@<TRIPOS>BOND
     1    1    2 1
     2   16   18 ar
     3   16   13 ar
     4   18   14 ar
     5   14   12 ar
     6   12   15 1
     7   12    9 ar
     8   13    9 ar
     9    9    6 1
    10    6    2 1
    11   16   21 1
    12   18   22 1
    13   14   19 1
    14   13   17 1
    15    1    3 1
    16    1    4 1
    17    1    5 1
    18    6   10 1
    19    6   11 1
    20    2    7 1
    21    2    8 1
    22   15   20 1
@<TRIPOS>SUBSTRUCTURE
166 JZ4167 1
@<TRIPOS>COMMENT


