@<TRIPOS>MOLECULE
3htb_ligand_0
5 4 1
SMALL
GASTEIGER


@<TRIPOS>ATOM
      1 P          15.4300  -26.5070   12.0400 P.3     164 PO4165     -1.0000
      2 O2         14.5650  -25.5710   11.2810 O.co2   164 PO4165     -0.5000
      3 O1         16.8990  -26.3590   11.7610 O.co2   164 PO4165     -0.5000
      4 O4         15.0420  -26.3180   13.5430 O.co2   164 PO4165     -0.5000
      5 O3         15.0710  -28.0100   11.8110 O.co2   164 PO4165     -0.5000
@<TRIPOS>BOND
     1    1    2 ar
     2    1    3 ar
     3    1    4 ar
     4    1    5 ar
@<TRIPOS>SUBSTRUCTURE
164 PO4165 1
@<TRIPOS>COMMENT


