@<TRIPOS>MOLECULE
3htb_ligand_3
10 9 1
SMALL
GASTEIGER


@<TRIPOS>ATOM
      1 C1         14.8570  -23.2920  -16.0620 C.3     167 BME168      0.0000
      2 O1         15.6110  -24.2100  -16.9040 O.3     167 BME168      0.0000
      3 C2         13.4060  -23.7620  -15.8700 C.3     167 BME168      0.0000
      4 H11        14.8731  -22.3037  -16.5446 H       167 BME168      0.0000
      5 H12        15.3668  -23.2332  -15.0890 H       167 BME168      0.0000
      6 H1         16.4472  -23.7819  -17.0457 H       167 BME168      0.0000
      7 S2         13.0820  -24.4980  -14.2180 S.3     167 BME168      0.0000
      8 H21        13.2424  -24.4819  -16.6855 H       167 BME168      0.0000
      9 H22        12.8014  -22.8608  -16.0497 H       167 BME168      0.0000
     10 H2         14.2026  -25.1561  -13.9081 H       167 BME168      0.0000
@<TRIPOS>BOND
     1    1    2 1
     2    1    3 1
     3    3    7 1
     4    1    4 1
     5    1    5 1
     6    3    8 1
     7    3    9 1
     8    2    6 1
     9    7   10 1
@<TRIPOS>SUBSTRUCTURE
167 BME168 1
@<TRIPOS>COMMENT


