@<TRIPOS>MOLECULE
3htb_ligand_1
5 4 1
SMALL
GASTEIGER


@<TRIPOS>ATOM
      1 P          21.7410    0.6200  -18.6480 P.3     165 PO4166     -1.0000
      2 O4         21.4250    0.6620  -17.1270 O.co2   165 PO4166     -0.5000
      3 O1         23.0730   -0.0650  -18.9170 O.co2   165 PO4166     -0.5000
      4 O2         21.9580    2.0100  -19.1530 O.co2   165 PO4166     -0.5000
      5 O3         20.6160   -0.0140  -19.4840 O.co2   165 PO4166     -0.5000
@<TRIPOS>BOND
     1    1    2 ar
     2    1    3 ar
     3    1    4 ar
     4    1    5 ar
@<TRIPOS>SUBSTRUCTURE
165 PO4166 1
@<TRIPOS>COMMENT


