@<TRIPOS>MOLECULE
3htb_water
660 440 220
SMALL
GASTEIGER


@<TRIPOS>ATOM
      1 O          25.5570  -14.3820  -13.1250 O.3     168 HOH169      0.0000
      2 H1         24.6070  -14.3820  -13.1250 H       168 HOH169      0.0000
      3 H2         25.8021  -13.4642  -13.1250 H       168 HOH169      0.0000
      4 O          27.3580  -15.2010  -12.8470 O.3     169 HOH170      0.0000
      5 H1         26.4080  -15.2010  -12.8470 H       169 HOH170      0.0000
      6 H2         27.6031  -14.2832  -12.8470 H       169 HOH170      0.0000
      7 O          26.5900  -12.7440  -13.0590 O.3     170 HOH171      0.0000
      8 H1         25.6400  -12.7440  -13.0590 H       170 HOH171      0.0000
      9 H2         26.8351  -11.8262  -13.0590 H       170 HOH171      0.0000
     10 O          32.1460   -7.7650    4.4700 O.3     171 HOH172      0.0000
     11 H1         31.1960   -7.7650    4.4700 H       171 HOH172      0.0000
     12 H2         32.3911   -6.8472    4.4700 H       171 HOH172      0.0000
     13 O          17.9270  -37.8420   -5.6370 O.3     172 HOH173      0.0000
     14 H1         16.9770  -37.8420   -5.6370 H       172 HOH173      0.0000
     15 H2         18.1721  -36.9242   -5.6370 H       172 HOH173      0.0000
     16 O          13.4280  -11.6840  -17.1840 O.3     173 HOH174      0.0000
     17 H1         12.4780  -11.6840  -17.1840 H       173 HOH174      0.0000
     18 H2         13.6731  -10.7662  -17.1840 H       173 HOH174      0.0000
     19 O          14.2160  -36.6070   -4.7920 O.3     174 HOH175      0.0000
     20 H1         13.2660  -36.6070   -4.7920 H       174 HOH175      0.0000
     21 H2         14.4611  -35.6892   -4.7920 H       174 HOH175      0.0000
     22 O          38.0320   -3.0780  -14.6640 O.3     175 HOH176      0.0000
     23 H1         37.0820   -3.0780  -14.6640 H       175 HOH176      0.0000
     24 H2         38.2771   -2.1602  -14.6640 H       175 HOH176      0.0000
     25 O          28.9990  -17.5510  -20.3930 O.3     176 HOH177      0.0000
     26 H1         28.0490  -17.5510  -20.3930 H       176 HOH177      0.0000
     27 H2         29.2441  -16.6332  -20.3930 H       176 HOH177      0.0000
     28 O           3.4170  -18.6140    0.8080 O.3     177 HOH178      0.0000
     29 H1          2.4670  -18.6140    0.8080 H       177 HOH178      0.0000
     30 H2          3.6621  -17.6962    0.8080 H       177 HOH178      0.0000
     31 O          24.2580  -16.9490   13.3460 O.3     178 HOH179      0.0000
     32 H1         23.3080  -16.9490   13.3460 H       178 HOH179      0.0000
     33 H2         24.5031  -16.0312   13.3460 H       178 HOH179      0.0000
     34 O          28.3920  -29.4260  -12.9040 O.3     179 HOH180      0.0000
     35 H1         27.4420  -29.4260  -12.9040 H       179 HOH180      0.0000
     36 H2         28.6371  -28.5082  -12.9040 H       179 HOH180      0.0000
     37 O          17.4640  -12.0820  -29.1940 O.3     180 HOH181      0.0000
     38 H1         16.5140  -12.0820  -29.1940 H       180 HOH181      0.0000
     39 H2         17.7091  -11.1642  -29.1940 H       180 HOH181      0.0000
     40 O          22.6700   -7.3070   -1.8470 O.3     181 HOH182      0.0000
     41 H1         21.7200   -7.3070   -1.8470 H       181 HOH182      0.0000
     42 H2         22.9151   -6.3892   -1.8470 H       181 HOH182      0.0000
     43 O          11.2080  -15.8760   -0.3450 O.3     182 HOH183      0.0000
     44 H1         10.2580  -15.8760   -0.3450 H       182 HOH183      0.0000
     45 H2         11.4531  -14.9582   -0.3450 H       182 HOH183      0.0000
     46 O          24.4610  -39.1740   -4.6450 O.3     183 HOH184      0.0000
     47 H1         23.5110  -39.1740   -4.6450 H       183 HOH184      0.0000
     48 H2         24.7061  -38.2562   -4.6450 H       183 HOH184      0.0000
     49 O          19.8140  -38.6640   -2.7590 O.3     184 HOH185      0.0000
     50 H1         18.8640  -38.6640   -2.7590 H       184 HOH185      0.0000
     51 H2         20.0591  -37.7462   -2.7590 H       184 HOH185      0.0000
     52 O          12.8620   -7.0110  -17.6580 O.3     185 HOH186      0.0000
     53 H1         11.9120   -7.0110  -17.6580 H       185 HOH186      0.0000
     54 H2         13.1071   -6.0932  -17.6580 H       185 HOH186      0.0000
     55 O          13.3720   -7.7030    4.6710 O.3     186 HOH187      0.0000
     56 H1         12.4220   -7.7030    4.6710 H       186 HOH187      0.0000
     57 H2         13.6171   -6.7852    4.6710 H       186 HOH187      0.0000
     58 O          10.3280   -7.7610  -15.8430 O.3     187 HOH188      0.0000
     59 H1          9.3780   -7.7610  -15.8430 H       187 HOH188      0.0000
     60 H2         10.5731   -6.8432  -15.8430 H       187 HOH188      0.0000
     61 O          23.7550   -7.6470  -11.7910 O.3     188 HOH189      0.0000
     62 H1         22.8050   -7.6470  -11.7910 H       188 HOH189      0.0000
     63 H2         24.0001   -6.7292  -11.7910 H       188 HOH189      0.0000
     64 O          26.0630  -25.7450  -16.9000 O.3     189 HOH190      0.0000
     65 H1         25.1130  -25.7450  -16.9000 H       189 HOH190      0.0000
     66 H2         26.3081  -24.8272  -16.9000 H       189 HOH190      0.0000
     67 O          37.5390  -16.9010  -11.4830 O.3     190 HOH191      0.0000
     68 H1         36.5890  -16.9010  -11.4830 H       190 HOH191      0.0000
     69 H2         37.7841  -15.9832  -11.4830 H       190 HOH191      0.0000
     70 O          22.1350  -20.5530   15.5730 O.3     191 HOH192      0.0000
     71 H1         21.1850  -20.5530   15.5730 H       191 HOH192      0.0000
     72 H2         22.3801  -19.6352   15.5730 H       191 HOH192      0.0000
     73 O          10.7540  -11.4890  -27.1490 O.3     192 HOH193      0.0000
     74 H1          9.8040  -11.4890  -27.1490 H       192 HOH193      0.0000
     75 H2         10.9991  -10.5712  -27.1490 H       192 HOH193      0.0000
     76 O          23.6260  -31.2460    9.8930 O.3     193 HOH194      0.0000
     77 H1         22.6760  -31.2460    9.8930 H       193 HOH194      0.0000
     78 H2         23.8711  -30.3282    9.8930 H       193 HOH194      0.0000
     79 O          26.9540  -22.1580  -13.2250 O.3     194 HOH195      0.0000
     80 H1         26.0040  -22.1580  -13.2250 H       194 HOH195      0.0000
     81 H2         27.1991  -21.2402  -13.2250 H       194 HOH195      0.0000
     82 O          32.6600  -23.4800   -0.0200 O.3     195 HOH196      0.0000
     83 H1         31.7100  -23.4800   -0.0200 H       195 HOH196      0.0000
     84 H2         32.9051  -22.5622   -0.0200 H       195 HOH196      0.0000
     85 O          11.9070  -11.3390  -29.5530 O.3     196 HOH197      0.0000
     86 H1         10.9570  -11.3390  -29.5530 H       196 HOH197      0.0000
     87 H2         12.1521  -10.4212  -29.5530 H       196 HOH197      0.0000
     88 O          14.1530   -9.8420  -31.4970 O.3     197 HOH198      0.0000
     89 H1         13.2030   -9.8420  -31.4970 H       197 HOH198      0.0000
     90 H2         14.3981   -8.9242  -31.4970 H       197 HOH198      0.0000
     91 O          17.6850   -4.9390   -2.2290 O.3     198 HOH199      0.0000
     92 H1         16.7350   -4.9390   -2.2290 H       198 HOH199      0.0000
     93 H2         17.9301   -4.0212   -2.2290 H       198 HOH199      0.0000
     94 O          26.8040  -13.1540    8.5780 O.3     199 HOH200      0.0000
     95 H1         25.8540  -13.1540    8.5780 H       199 HOH200      0.0000
     96 H2         27.0491  -12.2362    8.5780 H       199 HOH200      0.0000
     97 O          25.3510   -5.9680   -9.7140 O.3     200 HOH201      0.0000
     98 H1         24.4010   -5.9680   -9.7140 H       200 HOH201      0.0000
     99 H2         25.5961   -5.0502   -9.7140 H       200 HOH201      0.0000
    100 O          30.7280  -17.3200    0.5910 O.3     201 HOH202      0.0000
    101 H1         29.7780  -17.3200    0.5910 H       201 HOH202      0.0000
    102 H2         30.9731  -16.4022    0.5910 H       201 HOH202      0.0000
    103 O          29.4440   -9.5440   -4.1430 O.3     202 HOH203      0.0000
    104 H1         28.4940   -9.5440   -4.1430 H       202 HOH203      0.0000
    105 H2         29.6891   -8.6262   -4.1430 H       202 HOH203      0.0000
    106 O          19.5240   -3.4790   -0.8630 O.3     203 HOH204      0.0000
    107 H1         18.5740   -3.4790   -0.8630 H       203 HOH204      0.0000
    108 H2         19.7691   -2.5612   -0.8630 H       203 HOH204      0.0000
    109 O          15.8700  -16.5250    6.8320 O.3     204 HOH205      0.0000
    110 H1         14.9200  -16.5250    6.8320 H       204 HOH205      0.0000
    111 H2         16.1151  -15.6072    6.8320 H       204 HOH205      0.0000
    112 O          29.4690   -7.1900    6.6260 O.3     205 HOH206      0.0000
    113 H1         28.5190   -7.1900    6.6260 H       205 HOH206      0.0000
    114 H2         29.7141   -6.2722    6.6260 H       205 HOH206      0.0000
    115 O          11.7710  -25.0170   -9.7250 O.3     206 HOH207      0.0000
    116 H1         10.8210  -25.0170   -9.7250 H       206 HOH207      0.0000
    117 H2         12.0161  -24.0992   -9.7250 H       206 HOH207      0.0000
    118 O          13.1340   -9.0490  -18.8080 O.3     207 HOH208      0.0000
    119 H1         12.1840   -9.0490  -18.8080 H       207 HOH208      0.0000
    120 H2         13.3791   -8.1312  -18.8080 H       207 HOH208      0.0000
    121 O          24.5270  -26.3420  -19.8710 O.3     208 HOH209      0.0000
    122 H1         23.5770  -26.3420  -19.8710 H       208 HOH209      0.0000
    123 H2         24.7721  -25.4242  -19.8710 H       208 HOH209      0.0000
    124 O          31.9330   -6.7090   -2.9650 O.3     209 HOH210      0.0000
    125 H1         30.9830   -6.7090   -2.9650 H       209 HOH210      0.0000
    126 H2         32.1781   -5.7912   -2.9650 H       209 HOH210      0.0000
    127 O          23.9600  -37.0530   -8.1690 O.3     210 HOH211      0.0000
    128 H1         23.0100  -37.0530   -8.1690 H       210 HOH211      0.0000
    129 H2         24.2051  -36.1352   -8.1690 H       210 HOH211      0.0000
    130 O          18.4910  -10.7370  -33.4650 O.3     211 HOH212      0.0000
    131 H1         17.5410  -10.7370  -33.4650 H       211 HOH212      0.0000
    132 H2         18.7361   -9.8192  -33.4650 H       211 HOH212      0.0000
    133 O          31.9500  -22.6730  -10.8340 O.3     212 HOH213      0.0000
    134 H1         31.0000  -22.6730  -10.8340 H       212 HOH213      0.0000
    135 H2         32.1951  -21.7552  -10.8340 H       212 HOH213      0.0000
    136 O          36.4940   -3.0420  -11.5650 O.3     213 HOH214      0.0000
    137 H1         35.5440   -3.0420  -11.5650 H       213 HOH214      0.0000
    138 H2         36.7391   -2.1242  -11.5650 H       213 HOH214      0.0000
    139 O          26.2370   -8.1810   -9.5580 O.3     214 HOH215      0.0000
    140 H1         25.2870   -8.1810   -9.5580 H       214 HOH215      0.0000
    141 H2         26.4821   -7.2632   -9.5580 H       214 HOH215      0.0000
    142 O          16.2030   -1.8370  -19.9880 O.3     215 HOH216      0.0000
    143 H1         15.2530   -1.8370  -19.9880 H       215 HOH216      0.0000
    144 H2         16.4481   -0.9192  -19.9880 H       215 HOH216      0.0000
    145 O          24.7720  -16.0680  -14.8280 O.3     216 HOH217      0.0000
    146 H1         23.8220  -16.0680  -14.8280 H       216 HOH217      0.0000
    147 H2         25.0171  -15.1502  -14.8280 H       216 HOH217      0.0000
    148 O          10.7960   -6.0130  -14.0150 O.3     217 HOH218      0.0000
    149 H1          9.8460   -6.0130  -14.0150 H       217 HOH218      0.0000
    150 H2         11.0411   -5.0952  -14.0150 H       217 HOH218      0.0000
    151 O          23.8640  -37.9480   -1.8000 O.3     218 HOH219      0.0000
    152 H1         22.9140  -37.9480   -1.8000 H       218 HOH219      0.0000
    153 H2         24.1091  -37.0302   -1.8000 H       218 HOH219      0.0000
    154 O          28.3130  -11.9750   -2.7140 O.3     219 HOH220      0.0000
    155 H1         27.3630  -11.9750   -2.7140 H       219 HOH220      0.0000
    156 H2         28.5581  -11.0572   -2.7140 H       219 HOH220      0.0000
    157 O          22.4330  -25.1350  -20.7890 O.3     220 HOH221      0.0000
    158 H1         21.4830  -25.1350  -20.7890 H       220 HOH221      0.0000
    159 H2         22.6781  -24.2172  -20.7890 H       220 HOH221      0.0000
    160 O          21.6870   -6.0900  -14.7210 O.3     221 HOH222      0.0000
    161 H1         20.7370   -6.0900  -14.7210 H       221 HOH222      0.0000
    162 H2         21.9321   -5.1722  -14.7210 H       221 HOH222      0.0000
    163 O          23.1150  -26.1260   12.9840 O.3     222 HOH223      0.0000
    164 H1         22.1650  -26.1260   12.9840 H       222 HOH223      0.0000
    165 H2         23.3601  -25.2082   12.9840 H       222 HOH223      0.0000
    166 O          32.0110  -30.2210    5.9990 O.3     223 HOH224      0.0000
    167 H1         31.0610  -30.2210    5.9990 H       223 HOH224      0.0000
    168 H2         32.2561  -29.3032    5.9990 H       223 HOH224      0.0000
    169 O          36.0670  -11.1630    1.3260 O.3     224 HOH225      0.0000
    170 H1         35.1170  -11.1630    1.3260 H       224 HOH225      0.0000
    171 H2         36.3121  -10.2452    1.3260 H       224 HOH225      0.0000
    172 O          40.2490  -13.1370  -16.9590 O.3     225 HOH226      0.0000
    173 H1         39.2990  -13.1370  -16.9590 H       225 HOH226      0.0000
    174 H2         40.4941  -12.2192  -16.9590 H       225 HOH226      0.0000
    175 O          37.8890  -14.5700  -18.3660 O.3     226 HOH227      0.0000
    176 H1         36.9390  -14.5700  -18.3660 H       226 HOH227      0.0000
    177 H2         38.1341  -13.6522  -18.3660 H       226 HOH227      0.0000
    178 O          28.9160    0.3710  -20.9660 O.3     227 HOH228      0.0000
    179 H1         27.9660    0.3710  -20.9660 H       227 HOH228      0.0000
    180 H2         29.1611    1.2888  -20.9660 H       227 HOH228      0.0000
    181 O          18.8180   -0.6260  -14.2900 O.3     228 HOH229      0.0000
    182 H1         17.8680   -0.6260  -14.2900 H       228 HOH229      0.0000
    183 H2         19.0631    0.2918  -14.2900 H       228 HOH229      0.0000
    184 O          11.7370   -8.4200  -24.5650 O.3     229 HOH230      0.0000
    185 H1         10.7870   -8.4200  -24.5650 H       229 HOH230      0.0000
    186 H2         11.9821   -7.5022  -24.5650 H       229 HOH230      0.0000
    187 O          33.1670   -3.4330  -29.2080 O.3     230 HOH231      0.0000
    188 H1         32.2170   -3.4330  -29.2080 H       230 HOH231      0.0000
    189 H2         33.4121   -2.5152  -29.2080 H       230 HOH231      0.0000
    190 O          15.2580   -6.1140  -30.5660 O.3     231 HOH232      0.0000
    191 H1         14.3080   -6.1140  -30.5660 H       231 HOH232      0.0000
    192 H2         15.5031   -5.1962  -30.5660 H       231 HOH232      0.0000
    193 O          29.1510  -28.7250  -15.5510 O.3     232 HOH233      0.0000
    194 H1         28.2010  -28.7250  -15.5510 H       232 HOH233      0.0000
    195 H2         29.3961  -27.8072  -15.5510 H       232 HOH233      0.0000
    196 O          22.3880  -29.5790   12.3330 O.3     233 HOH234      0.0000
    197 H1         21.4380  -29.5790   12.3330 H       233 HOH234      0.0000
    198 H2         22.6331  -28.6612   12.3330 H       233 HOH234      0.0000
    199 O          20.8480  -17.5110   15.0950 O.3     234 HOH235      0.0000
    200 H1         19.8980  -17.5110   15.0950 H       234 HOH235      0.0000
    201 H2         21.0931  -16.5932   15.0950 H       234 HOH235      0.0000
    202 O          36.6020   -5.2180  -14.3110 O.3     235 HOH236      0.0000
    203 H1         35.6520   -5.2180  -14.3110 H       235 HOH236      0.0000
    204 H2         36.8471   -4.3002  -14.3110 H       235 HOH236      0.0000
    205 O          19.8980  -36.2920    4.2170 O.3     236 HOH237      0.0000
    206 H1         18.9480  -36.2920    4.2170 H       236 HOH237      0.0000
    207 H2         20.1431  -35.3742    4.2170 H       236 HOH237      0.0000
    208 O          38.0040  -14.4440  -21.3000 O.3     237 HOH238      0.0000
    209 H1         37.0540  -14.4440  -21.3000 H       237 HOH238      0.0000
    210 H2         38.2491  -13.5262  -21.3000 H       237 HOH238      0.0000
    211 O          11.7250   -7.6110   -3.7140 O.3     238 HOH239      0.0000
    212 H1         10.7750   -7.6110   -3.7140 H       238 HOH239      0.0000
    213 H2         11.9701   -6.6932   -3.7140 H       238 HOH239      0.0000
    214 O          28.6560    2.9580  -20.3380 O.3     239 HOH240      0.0000
    215 H1         27.7060    2.9580  -20.3380 H       239 HOH240      0.0000
    216 H2         28.9011    3.8758  -20.3380 H       239 HOH240      0.0000
    217 O          25.9080   -8.0770    6.4610 O.3     240 HOH241      0.0000
    218 H1         24.9580   -8.0770    6.4610 H       240 HOH241      0.0000
    219 H2         26.1531   -7.1592    6.4610 H       240 HOH241      0.0000
    220 O          15.0710   -4.7280   -0.0790 O.3     241 HOH242      0.0000
    221 H1         14.1210   -4.7280   -0.0790 H       241 HOH242      0.0000
    222 H2         15.3161   -3.8102   -0.0790 H       241 HOH242      0.0000
    223 O          35.9160  -13.8330   -8.1880 O.3     242 HOH243      0.0000
    224 H1         34.9660  -13.8330   -8.1880 H       242 HOH243      0.0000
    225 H2         36.1611  -12.9152   -8.1880 H       242 HOH243      0.0000
    226 O          19.8100  -15.4450   12.4020 O.3     243 HOH244      0.0000
    227 H1         18.8600  -15.4450   12.4020 H       243 HOH244      0.0000
    228 H2         20.0551  -14.5272   12.4020 H       243 HOH244      0.0000
    229 O           3.6970  -13.3390  -13.5260 O.3     244 HOH245      0.0000
    230 H1          2.7470  -13.3390  -13.5260 H       244 HOH245      0.0000
    231 H2          3.9421  -12.4212  -13.5260 H       244 HOH245      0.0000
    232 O          40.8980  -11.4810  -21.0850 O.3     245 HOH246      0.0000
    233 H1         39.9480  -11.4810  -21.0850 H       245 HOH246      0.0000
    234 H2         41.1431  -10.5632  -21.0850 H       245 HOH246      0.0000
    235 O          32.6850   -4.2810  -33.5620 O.3     246 HOH247      0.0000
    236 H1         31.7350   -4.2810  -33.5620 H       246 HOH247      0.0000
    237 H2         32.9301   -3.3632  -33.5620 H       246 HOH247      0.0000
    238 O           7.5030   -9.7390   -7.2870 O.3     247 HOH248      0.0000
    239 H1          6.5530   -9.7390   -7.2870 H       247 HOH248      0.0000
    240 H2          7.7481   -8.8212   -7.2870 H       247 HOH248      0.0000
    241 O          16.5840   -8.3760    1.8600 O.3     248 HOH249      0.0000
    242 H1         15.6340   -8.3760    1.8600 H       248 HOH249      0.0000
    243 H2         16.8291   -7.4582    1.8600 H       248 HOH249      0.0000
    244 O          32.3630  -13.8550    6.0060 O.3     249 HOH250      0.0000
    245 H1         31.4130  -13.8550    6.0060 H       249 HOH250      0.0000
    246 H2         32.6081  -12.9372    6.0060 H       249 HOH250      0.0000
    247 O          23.9830  -16.7210   10.8050 O.3     250 HOH251      0.0000
    248 H1         23.0330  -16.7210   10.8050 H       250 HOH251      0.0000
    249 H2         24.2281  -15.8032   10.8050 H       250 HOH251      0.0000
    250 O          11.2400  -29.2980    0.8360 O.3     251 HOH252      0.0000
    251 H1         10.2900  -29.2980    0.8360 H       251 HOH252      0.0000
    252 H2         11.4851  -28.3802    0.8360 H       251 HOH252      0.0000
    253 O          22.1540  -15.9960   -4.6850 O.3     252 HOH253      0.0000
    254 H1         21.2040  -15.9960   -4.6850 H       252 HOH253      0.0000
    255 H2         22.3991  -15.0782   -4.6850 H       252 HOH253      0.0000
    256 O          23.0830  -15.2000  -28.2820 O.3     253 HOH254      0.0000
    257 H1         22.1330  -15.2000  -28.2820 H       253 HOH254      0.0000
    258 H2         23.3281  -14.2822  -28.2820 H       253 HOH254      0.0000
    259 O          17.1120  -14.2810    5.4310 O.3     254 HOH255      0.0000
    260 H1         16.1620  -14.2810    5.4310 H       254 HOH255      0.0000
    261 H2         17.3571  -13.3632    5.4310 H       254 HOH255      0.0000
    262 O          21.9140  -13.3990  -18.0100 O.3     255 HOH256      0.0000
    263 H1         20.9640  -13.3990  -18.0100 H       255 HOH256      0.0000
    264 H2         22.1591  -12.4812  -18.0100 H       255 HOH256      0.0000
    265 O           7.2590  -14.9110  -15.6000 O.3     256 HOH257      0.0000
    266 H1          6.3090  -14.9110  -15.6000 H       256 HOH257      0.0000
    267 H2          7.5041  -13.9932  -15.6000 H       256 HOH257      0.0000
    268 O          17.9210  -36.4270   -3.4660 O.3     257 HOH258      0.0000
    269 H1         16.9710  -36.4270   -3.4660 H       257 HOH258      0.0000
    270 H2         18.1661  -35.5092   -3.4660 H       257 HOH258      0.0000
    271 O          10.8210  -21.2320  -11.4110 O.3     258 HOH259      0.0000
    272 H1          9.8710  -21.2320  -11.4110 H       258 HOH259      0.0000
    273 H2         11.0661  -20.3142  -11.4110 H       258 HOH259      0.0000
    274 O          20.3300   -7.9660   -5.7400 O.3     259 HOH260      0.0000
    275 H1         19.3800   -7.9660   -5.7400 H       259 HOH260      0.0000
    276 H2         20.5751   -7.0482   -5.7400 H       259 HOH260      0.0000
    277 O          25.6360   -9.8180  -11.9850 O.3     260 HOH261      0.0000
    278 H1         24.6860   -9.8180  -11.9850 H       260 HOH261      0.0000
    279 H2         25.8811   -8.9002  -11.9850 H       260 HOH261      0.0000
    280 O          28.2600  -10.6440  -13.0640 O.3     261 HOH262      0.0000
    281 H1         27.3100  -10.6440  -13.0640 H       261 HOH262      0.0000
    282 H2         28.5051   -9.7262  -13.0640 H       261 HOH262      0.0000
    283 O          38.1050   -7.0030  -13.0560 O.3     262 HOH263      0.0000
    284 H1         37.1550   -7.0030  -13.0560 H       262 HOH263      0.0000
    285 H2         38.3501   -6.0852  -13.0560 H       262 HOH263      0.0000
    286 O          15.6780  -34.8220    2.0030 O.3     263 HOH264      0.0000
    287 H1         14.7280  -34.8220    2.0030 H       263 HOH264      0.0000
    288 H2         15.9231  -33.9042    2.0030 H       263 HOH264      0.0000
    289 O          15.9130  -30.9100    1.2430 O.3     264 HOH265      0.0000
    290 H1         14.9630  -30.9100    1.2430 H       264 HOH265      0.0000
    291 H2         16.1581  -29.9922    1.2430 H       264 HOH265      0.0000
    292 O          19.5420  -14.3790    6.4340 O.3     265 HOH266      0.0000
    293 H1         18.5920  -14.3790    6.4340 H       265 HOH266      0.0000
    294 H2         19.7871  -13.4612    6.4340 H       265 HOH266      0.0000
    295 O          14.8100   -7.4230   -0.0700 O.3     266 HOH267      0.0000
    296 H1         13.8600   -7.4230   -0.0700 H       266 HOH267      0.0000
    297 H2         15.0551   -6.5052   -0.0700 H       266 HOH267      0.0000
    298 O          27.5880   -6.8900    5.1080 O.3     267 HOH268      0.0000
    299 H1         26.6380   -6.8900    5.1080 H       267 HOH268      0.0000
    300 H2         27.8331   -5.9722    5.1080 H       267 HOH268      0.0000
    301 O          17.2220  -19.4520   10.5150 O.3     268 HOH269      0.0000
    302 H1         16.2720  -19.4520   10.5150 H       268 HOH269      0.0000
    303 H2         17.4671  -18.5342   10.5150 H       268 HOH269      0.0000
    304 O          30.5260  -11.8030  -10.2120 O.3     269 HOH270      0.0000
    305 H1         29.5760  -11.8030  -10.2120 H       269 HOH270      0.0000
    306 H2         30.7711  -10.8852  -10.2120 H       269 HOH270      0.0000
    307 O          30.8780   -5.2760  -27.5110 O.3     270 HOH271      0.0000
    308 H1         29.9280   -5.2760  -27.5110 H       270 HOH271      0.0000
    309 H2         31.1231   -4.3582  -27.5110 H       270 HOH271      0.0000
    310 O          22.9630   -5.5840    0.0030 O.3     271 HOH272      0.0000
    311 H1         22.0130   -5.5840    0.0030 H       271 HOH272      0.0000
    312 H2         23.2081   -4.6662    0.0030 H       271 HOH272      0.0000
    313 O          21.3810  -11.3880  -19.6450 O.3     272 HOH273      0.0000
    314 H1         20.4310  -11.3880  -19.6450 H       272 HOH273      0.0000
    315 H2         21.6261  -10.4702  -19.6450 H       272 HOH273      0.0000
    316 O          33.4620   -4.7920   -5.5870 O.3     273 HOH274      0.0000
    317 H1         32.5120   -4.7920   -5.5870 H       273 HOH274      0.0000
    318 H2         33.7071   -3.8742   -5.5870 H       273 HOH274      0.0000
    319 O          29.7350  -25.0030    4.8750 O.3     274 HOH275      0.0000
    320 H1         28.7850  -25.0030    4.8750 H       274 HOH275      0.0000
    321 H2         29.9801  -24.0852    4.8750 H       274 HOH275      0.0000
    322 O          20.2540  -16.5560    8.2040 O.3     275 HOH276      0.0000
    323 H1         19.3040  -16.5560    8.2040 H       275 HOH276      0.0000
    324 H2         20.4991  -15.6382    8.2040 H       275 HOH276      0.0000
    325 O          33.9170  -27.3310    1.6600 O.3     276 HOH277      0.0000
    326 H1         32.9670  -27.3310    1.6600 H       276 HOH277      0.0000
    327 H2         34.1621  -26.4132    1.6600 H       276 HOH277      0.0000
    328 O           5.1120  -15.9980  -11.7440 O.3     277 HOH278      0.0000
    329 H1          4.1620  -15.9980  -11.7440 H       277 HOH278      0.0000
    330 H2          5.3571  -15.0802  -11.7440 H       277 HOH278      0.0000
    331 O           5.4760  -22.4290   -1.5860 O.3     278 HOH279      0.0000
    332 H1          4.5260  -22.4290   -1.5860 H       278 HOH279      0.0000
    333 H2          5.7211  -21.5112   -1.5860 H       278 HOH279      0.0000
    334 O          33.0210  -10.9910    3.4950 O.3     279 HOH280      0.0000
    335 H1         32.0710  -10.9910    3.4950 H       279 HOH280      0.0000
    336 H2         33.2661  -10.0732    3.4950 H       279 HOH280      0.0000
    337 O          24.0740   -9.5530   -6.4100 O.3     280 HOH281      0.0000
    338 H1         23.1240   -9.5530   -6.4100 H       280 HOH281      0.0000
    339 H2         24.3191   -8.6352   -6.4100 H       280 HOH281      0.0000
    340 O           5.1460  -18.1380  -12.9740 O.3     281 HOH282      0.0000
    341 H1          4.1960  -18.1380  -12.9740 H       281 HOH282      0.0000
    342 H2          5.3911  -17.2202  -12.9740 H       281 HOH282      0.0000
    343 O          35.7410   -7.7360  -15.6300 O.3     282 HOH283      0.0000
    344 H1         34.7910   -7.7360  -15.6300 H       282 HOH283      0.0000
    345 H2         35.9861   -6.8182  -15.6300 H       282 HOH283      0.0000
    346 O          24.5700  -17.0570  -22.3060 O.3     283 HOH284      0.0000
    347 H1         23.6200  -17.0570  -22.3060 H       283 HOH284      0.0000
    348 H2         24.8151  -16.1392  -22.3060 H       283 HOH284      0.0000
    349 O          11.9010  -24.0070    9.6330 O.3     284 HOH285      0.0000
    350 H1         10.9510  -24.0070    9.6330 H       284 HOH285      0.0000
    351 H2         12.1461  -23.0892    9.6330 H       284 HOH285      0.0000
    352 O           5.1340  -18.3520   -1.8420 O.3     285 HOH286      0.0000
    353 H1          4.1840  -18.3520   -1.8420 H       285 HOH286      0.0000
    354 H2          5.3791  -17.4342   -1.8420 H       285 HOH286      0.0000
    355 O          23.0900   -7.1980   -4.7350 O.3     286 HOH287      0.0000
    356 H1         22.1400   -7.1980   -4.7350 H       286 HOH287      0.0000
    357 H2         23.3351   -6.2802   -4.7350 H       286 HOH287      0.0000
    358 O           7.9800  -25.0150   -0.9990 O.3     287 HOH288      0.0000
    359 H1          7.0300  -25.0150   -0.9990 H       287 HOH288      0.0000
    360 H2          8.2251  -24.0972   -0.9990 H       287 HOH288      0.0000
    361 O          26.0400  -22.5930   11.6790 O.3     288 HOH289      0.0000
    362 H1         25.0900  -22.5930   11.6790 H       288 HOH289      0.0000
    363 H2         26.2851  -21.6752   11.6790 H       288 HOH289      0.0000
    364 O          31.3950  -15.5540    8.4680 O.3     289 HOH290      0.0000
    365 H1         30.4450  -15.5540    8.4680 H       289 HOH290      0.0000
    366 H2         31.6401  -14.6362    8.4680 H       289 HOH290      0.0000
    367 O          17.3680   -7.4980  -30.5020 O.3     290 HOH291      0.0000
    368 H1         16.4180   -7.4980  -30.5020 H       290 HOH291      0.0000
    369 H2         17.6131   -6.5802  -30.5020 H       290 HOH291      0.0000
    370 O           7.1430  -21.9200    5.2190 O.3     291 HOH292      0.0000
    371 H1          6.1930  -21.9200    5.2190 H       291 HOH292      0.0000
    372 H2          7.3881  -21.0022    5.2190 H       291 HOH292      0.0000
    373 O          21.5690  -15.5580   10.3650 O.3     292 HOH293      0.0000
    374 H1         20.6190  -15.5580   10.3650 H       292 HOH293      0.0000
    375 H2         21.8141  -14.6402   10.3650 H       292 HOH293      0.0000
    376 O          13.6620  -12.0470    3.9270 O.3     293 HOH294      0.0000
    377 H1         12.7120  -12.0470    3.9270 H       293 HOH294      0.0000
    378 H2         13.9071  -11.1292    3.9270 H       293 HOH294      0.0000
    379 O          21.7530  -22.8440  -22.2590 O.3     294 HOH295      0.0000
    380 H1         20.8030  -22.8440  -22.2590 H       294 HOH295      0.0000
    381 H2         21.9981  -21.9262  -22.2590 H       294 HOH295      0.0000
    382 O          17.1010  -26.9340   15.3060 O.3     295 HOH296      0.0000
    383 H1         16.1510  -26.9340   15.3060 H       295 HOH296      0.0000
    384 H2         17.3461  -26.0162   15.3060 H       295 HOH296      0.0000
    385 O          17.8640   -2.9120  -13.4400 O.3     296 HOH297      0.0000
    386 H1         16.9140   -2.9120  -13.4400 H       296 HOH297      0.0000
    387 H2         18.1091   -1.9942  -13.4400 H       296 HOH297      0.0000
    388 O          14.8090  -14.9860  -20.4230 O.3     297 HOH298      0.0000
    389 H1         13.8590  -14.9860  -20.4230 H       297 HOH298      0.0000
    390 H2         15.0541  -14.0682  -20.4230 H       297 HOH298      0.0000
    391 O          10.7900   -9.9070  -11.7450 O.3     298 HOH299      0.0000
    392 H1          9.8400   -9.9070  -11.7450 H       298 HOH299      0.0000
    393 H2         11.0351   -8.9892  -11.7450 H       298 HOH299      0.0000
    394 O          23.1440  -23.7680   11.7690 O.3     299 HOH300      0.0000
    395 H1         22.1940  -23.7680   11.7690 H       299 HOH300      0.0000
    396 H2         23.3891  -22.8502   11.7690 H       299 HOH300      0.0000
    397 O          20.2810  -12.2380    8.0150 O.3     300 HOH301      0.0000
    398 H1         19.3310  -12.2380    8.0150 H       300 HOH301      0.0000
    399 H2         20.5261  -11.3202    8.0150 H       300 HOH301      0.0000
    400 O          27.0070  -15.1370  -16.1800 O.3     301 HOH302      0.0000
    401 H1         26.0570  -15.1370  -16.1800 H       301 HOH302      0.0000
    402 H2         27.2521  -14.2192  -16.1800 H       301 HOH302      0.0000
    403 O          27.2120  -31.6890    2.4660 O.3     302 HOH303      0.0000
    404 H1         26.2620  -31.6890    2.4660 H       302 HOH303      0.0000
    405 H2         27.4571  -30.7712    2.4660 H       302 HOH303      0.0000
    406 O           4.4860  -20.7340   -3.3290 O.3     303 HOH304      0.0000
    407 H1          3.5360  -20.7340   -3.3290 H       303 HOH304      0.0000
    408 H2          4.7311  -19.8162   -3.3290 H       303 HOH304      0.0000
    409 O          23.1180  -11.8090  -33.1980 O.3     304 HOH305      0.0000
    410 H1         22.1680  -11.8090  -33.1980 H       304 HOH305      0.0000
    411 H2         23.3631  -10.8912  -33.1980 H       304 HOH305      0.0000
    412 O          12.9030  -12.2340  -25.0990 O.3     305 HOH306      0.0000
    413 H1         11.9530  -12.2340  -25.0990 H       305 HOH306      0.0000
    414 H2         13.1481  -11.3162  -25.0990 H       305 HOH306      0.0000
    415 O          25.9290  -33.1060   -1.4220 O.3     306 HOH307      0.0000
    416 H1         24.9790  -33.1060   -1.4220 H       306 HOH307      0.0000
    417 H2         26.1741  -32.1882   -1.4220 H       306 HOH307      0.0000
    418 O          17.5090  -27.8480  -19.6510 O.3     307 HOH308      0.0000
    419 H1         16.5590  -27.8480  -19.6510 H       307 HOH308      0.0000
    420 H2         17.7541  -26.9302  -19.6510 H       307 HOH308      0.0000
    421 O           8.2720  -10.6010  -10.5120 O.3     308 HOH309      0.0000
    422 H1          7.3220  -10.6010  -10.5120 H       308 HOH309      0.0000
    423 H2          8.5171   -9.6832  -10.5120 H       308 HOH309      0.0000
    424 O          12.6560  -26.3370    9.6470 O.3     309 HOH310      0.0000
    425 H1         11.7060  -26.3370    9.6470 H       309 HOH310      0.0000
    426 H2         12.9011  -25.4192    9.6470 H       309 HOH310      0.0000
    427 O          25.2940  -12.7300  -10.6220 O.3     310 HOH311      0.0000
    428 H1         24.3440  -12.7300  -10.6220 H       310 HOH311      0.0000
    429 H2         25.5391  -11.8122  -10.6220 H       310 HOH311      0.0000
    430 O          37.6500    0.6020  -15.2630 O.3     311 HOH312      0.0000
    431 H1         36.7000    0.6020  -15.2630 H       311 HOH312      0.0000
    432 H2         37.8951    1.5198  -15.2630 H       311 HOH312      0.0000
    433 O          17.3620   -6.3740    3.5160 O.3     312 HOH313      0.0000
    434 H1         16.4120   -6.3740    3.5160 H       312 HOH313      0.0000
    435 H2         17.6071   -5.4562    3.5160 H       312 HOH313      0.0000
    436 O          13.4450  -30.4940   10.0760 O.3     313 HOH314      0.0000
    437 H1         12.4950  -30.4940   10.0760 H       313 HOH314      0.0000
    438 H2         13.6901  -29.5762   10.0760 H       313 HOH314      0.0000
    439 O          20.8800  -10.5910  -31.8240 O.3     314 HOH315      0.0000
    440 H1         19.9300  -10.5910  -31.8240 H       314 HOH315      0.0000
    441 H2         21.1251   -9.6732  -31.8240 H       314 HOH315      0.0000
    442 O          15.4430   -3.4510  -12.1040 O.3     315 HOH316      0.0000
    443 H1         14.4930   -3.4510  -12.1040 H       315 HOH316      0.0000
    444 H2         15.6881   -2.5332  -12.1040 H       315 HOH316      0.0000
    445 O          12.6470   -8.9050    0.6480 O.3     316 HOH317      0.0000
    446 H1         11.6970   -8.9050    0.6480 H       316 HOH317      0.0000
    447 H2         12.8921   -7.9872    0.6480 H       316 HOH317      0.0000
    448 O          22.6110  -31.6410  -16.7580 O.3     317 HOH318      0.0000
    449 H1         21.6610  -31.6410  -16.7580 H       317 HOH318      0.0000
    450 H2         22.8561  -30.7232  -16.7580 H       317 HOH318      0.0000
    451 O          15.0970  -13.3690  -26.2500 O.3     318 HOH319      0.0000
    452 H1         14.1470  -13.3690  -26.2500 H       318 HOH319      0.0000
    453 H2         15.3421  -12.4512  -26.2500 H       318 HOH319      0.0000
    454 O           5.1380  -16.0900  -16.6930 O.3     319 HOH320      0.0000
    455 H1          4.1880  -16.0900  -16.6930 H       319 HOH320      0.0000
    456 H2          5.3831  -15.1722  -16.6930 H       319 HOH320      0.0000
    457 O          32.3750    1.7030  -23.9350 O.3     320 HOH321      0.0000
    458 H1         31.4250    1.7030  -23.9350 H       320 HOH321      0.0000
    459 H2         32.6201    2.6208  -23.9350 H       320 HOH321      0.0000
    460 O          26.9800    0.7810  -17.8220 O.3     321 HOH322      0.0000
    461 H1         26.0300    0.7810  -17.8220 H       321 HOH322      0.0000
    462 H2         27.2251    1.6988  -17.8220 H       321 HOH322      0.0000
    463 O          13.7850  -18.5510   11.9590 O.3     322 HOH323      0.0000
    464 H1         12.8350  -18.5510   11.9590 H       322 HOH323      0.0000
    465 H2         14.0301  -17.6332   11.9590 H       322 HOH323      0.0000
    466 O          28.4730  -31.7950    0.0780 O.3     323 HOH324      0.0000
    467 H1         27.5230  -31.7950    0.0780 H       323 HOH324      0.0000
    468 H2         28.7181  -30.8772    0.0780 H       323 HOH324      0.0000
    469 O          31.6670  -17.2980   -6.3250 O.3     324 HOH325      0.0000
    470 H1         30.7170  -17.2980   -6.3250 H       324 HOH325      0.0000
    471 H2         31.9121  -16.3802   -6.3250 H       324 HOH325      0.0000
    472 O          29.2090  -13.5120    8.6500 O.3     325 HOH326      0.0000
    473 H1         28.2590  -13.5120    8.6500 H       325 HOH326      0.0000
    474 H2         29.4541  -12.5942    8.6500 H       325 HOH326      0.0000
    475 O          25.2510  -20.0490  -20.7620 O.3     326 HOH327      0.0000
    476 H1         24.3010  -20.0490  -20.7620 H       326 HOH327      0.0000
    477 H2         25.4961  -19.1312  -20.7620 H       326 HOH327      0.0000
    478 O          16.7290  -10.0550  -30.8570 O.3     327 HOH328      0.0000
    479 H1         15.7790  -10.0550  -30.8570 H       327 HOH328      0.0000
    480 H2         16.9741   -9.1372  -30.8570 H       327 HOH328      0.0000
    481 O          24.5800   -2.5490  -30.3890 O.3     328 HOH329      0.0000
    482 H1         23.6300   -2.5490  -30.3890 H       328 HOH329      0.0000
    483 H2         24.8251   -1.6312  -30.3890 H       328 HOH329      0.0000
    484 O          19.0440  -36.7900   -7.7300 O.3     329 HOH330      0.0000
    485 H1         18.0940  -36.7900   -7.7300 H       329 HOH330      0.0000
    486 H2         19.2891  -35.8722   -7.7300 H       329 HOH330      0.0000
    487 O          24.4080   -2.7420  -11.7830 O.3     330 HOH331      0.0000
    488 H1         23.4580   -2.7420  -11.7830 H       330 HOH331      0.0000
    489 H2         24.6531   -1.8242  -11.7830 H       330 HOH331      0.0000
    490 O          14.6770   -6.0670  -27.6380 O.3     331 HOH332      0.0000
    491 H1         13.7270   -6.0670  -27.6380 H       331 HOH332      0.0000
    492 H2         14.9221   -5.1492  -27.6380 H       331 HOH332      0.0000
    493 O          22.3110   -4.4470  -12.3540 O.3     332 HOH333      0.0000
    494 H1         21.3610   -4.4470  -12.3540 H       332 HOH333      0.0000
    495 H2         22.5561   -3.5292  -12.3540 H       332 HOH333      0.0000
    496 O          15.5550  -15.9930  -25.7680 O.3     333 HOH334      0.0000
    497 H1         14.6050  -15.9930  -25.7680 H       333 HOH334      0.0000
    498 H2         15.8001  -15.0752  -25.7680 H       333 HOH334      0.0000
    499 O          26.5580  -19.7880  -12.3340 O.3     334 HOH335      0.0000
    500 H1         25.6080  -19.7880  -12.3340 H       334 HOH335      0.0000
    501 H2         26.8031  -18.8702  -12.3340 H       334 HOH335      0.0000
    502 O          15.7440   -3.3130  -26.1860 O.3     335 HOH336      0.0000
    503 H1         14.7940   -3.3130  -26.1860 H       335 HOH336      0.0000
    504 H2         15.9891   -2.3952  -26.1860 H       335 HOH336      0.0000
    505 O          30.3850  -29.9080   -0.5960 O.3     336 HOH337      0.0000
    506 H1         29.4350  -29.9080   -0.5960 H       336 HOH337      0.0000
    507 H2         30.6301  -28.9902   -0.5960 H       336 HOH337      0.0000
    508 O          20.2510   -1.2050  -26.2650 O.3     337 HOH338      0.0000
    509 H1         19.3010   -1.2050  -26.2650 H       337 HOH338      0.0000
    510 H2         20.4961   -0.2872  -26.2650 H       337 HOH338      0.0000
    511 O           6.6290  -23.8560    2.1510 O.3     338 HOH339      0.0000
    512 H1          5.6790  -23.8560    2.1510 H       338 HOH339      0.0000
    513 H2          6.8741  -22.9382    2.1510 H       338 HOH339      0.0000
    514 O          29.3620  -22.5390  -12.1430 O.3     339 HOH340      0.0000
    515 H1         28.4120  -22.5390  -12.1430 H       339 HOH340      0.0000
    516 H2         29.6071  -21.6212  -12.1430 H       339 HOH340      0.0000
    517 O          25.7240  -24.5060  -12.3960 O.3     340 HOH341      0.0000
    518 H1         24.7740  -24.5060  -12.3960 H       340 HOH341      0.0000
    519 H2         25.9691  -23.5882  -12.3960 H       340 HOH341      0.0000
    520 O          11.3690   -7.1310  -11.7870 O.3     341 HOH342      0.0000
    521 H1         10.4190   -7.1310  -11.7870 H       341 HOH342      0.0000
    522 H2         11.6141   -6.2132  -11.7870 H       341 HOH342      0.0000
    523 O          38.8080   -1.3880  -16.6250 O.3     342 HOH343      0.0000
    524 H1         37.8580   -1.3880  -16.6250 H       342 HOH343      0.0000
    525 H2         39.0531   -0.4702  -16.6250 H       342 HOH343      0.0000
    526 O          16.5250  -33.4200    9.6760 O.3     343 HOH344      0.0000
    527 H1         15.5750  -33.4200    9.6760 H       343 HOH344      0.0000
    528 H2         16.7701  -32.5022    9.6760 H       343 HOH344      0.0000
    529 O          29.3070   -6.9290   -3.5360 O.3     344 HOH345      0.0000
    530 H1         28.3570   -6.9290   -3.5360 H       344 HOH345      0.0000
    531 H2         29.5521   -6.0112   -3.5360 H       344 HOH345      0.0000
    532 O          14.4910   -9.8820    2.7940 O.3     345 HOH346      0.0000
    533 H1         13.5410   -9.8820    2.7940 H       345 HOH346      0.0000
    534 H2         14.7361   -8.9642    2.7940 H       345 HOH346      0.0000
    535 O          21.4190  -37.2090   -6.8460 O.3     346 HOH347      0.0000
    536 H1         20.4690  -37.2090   -6.8460 H       346 HOH347      0.0000
    537 H2         21.6641  -36.2912   -6.8460 H       346 HOH347      0.0000
    538 O          34.8880   -6.7120  -29.8330 O.3     347 HOH348      0.0000
    539 H1         33.9380   -6.7120  -29.8330 H       347 HOH348      0.0000
    540 H2         35.1331   -5.7942  -29.8330 H       347 HOH348      0.0000
    541 O          28.8260  -26.3690  -14.6190 O.3     348 HOH349      0.0000
    542 H1         27.8760  -26.3690  -14.6190 H       348 HOH349      0.0000
    543 H2         29.0711  -25.4512  -14.6190 H       348 HOH349      0.0000
    544 O          36.9110   -5.6050  -28.2400 O.3     349 HOH350      0.0000
    545 H1         35.9610   -5.6050  -28.2400 H       349 HOH350      0.0000
    546 H2         37.1561   -4.6872  -28.2400 H       349 HOH350      0.0000
    547 O          28.3920    0.2760  -23.3480 O.3     350 HOH351      0.0000
    548 H1         27.4420    0.2760  -23.3480 H       350 HOH351      0.0000
    549 H2         28.6371    1.1938  -23.3480 H       350 HOH351      0.0000
    550 O          30.7940  -12.1830  -32.9280 O.3     351 HOH352      0.0000
    551 H1         29.8440  -12.1830  -32.9280 H       351 HOH352      0.0000
    552 H2         31.0391  -11.2652  -32.9280 H       351 HOH352      0.0000
    553 O          19.5380  -27.4510  -21.0580 O.3     352 HOH353      0.0000
    554 H1         18.5880  -27.4510  -21.0580 H       352 HOH353      0.0000
    555 H2         19.7831  -26.5332  -21.0580 H       352 HOH353      0.0000
    556 O          35.7880   -8.2440   -6.4420 O.3     353 HOH354      0.0000
    557 H1         34.8380   -8.2440   -6.4420 H       353 HOH354      0.0000
    558 H2         36.0331   -7.3262   -6.4420 H       353 HOH354      0.0000
    559 O          24.7910  -32.5490    1.2230 O.3     354 HOH355      0.0000
    560 H1         23.8410  -32.5490    1.2230 H       354 HOH355      0.0000
    561 H2         25.0361  -31.6312    1.2230 H       354 HOH355      0.0000
    562 O          17.9950  -24.1780   15.5110 O.3     355 HOH356      0.0000
    563 H1         17.0450  -24.1780   15.5110 H       355 HOH356      0.0000
    564 H2         18.2401  -23.2602   15.5110 H       355 HOH356      0.0000
    565 O          19.9910  -12.4290  -30.1860 O.3     356 HOH357      0.0000
    566 H1         19.0410  -12.4290  -30.1860 H       356 HOH357      0.0000
    567 H2         20.2361  -11.5112  -30.1860 H       356 HOH357      0.0000
    568 O          26.0560  -14.6720   10.2790 O.3     357 HOH358      0.0000
    569 H1         25.1060  -14.6720   10.2790 H       357 HOH358      0.0000
    570 H2         26.3011  -13.7542   10.2790 H       357 HOH358      0.0000
    571 O          10.0680  -10.1100  -14.4390 O.3     358 HOH359      0.0000
    572 H1          9.1180  -10.1100  -14.4390 H       358 HOH359      0.0000
    573 H2         10.3131   -9.1922  -14.4390 H       358 HOH359      0.0000
    574 O          17.5690  -17.0710    9.1360 O.3     359 HOH360      0.0000
    575 H1         16.6190  -17.0710    9.1360 H       359 HOH360      0.0000
    576 H2         17.8141  -16.1532    9.1360 H       359 HOH360      0.0000
    577 O          34.5970   -2.7410   -7.3540 O.3     360 HOH361      0.0000
    578 H1         33.6470   -2.7410   -7.3540 H       360 HOH361      0.0000
    579 H2         34.8421   -1.8232   -7.3540 H       360 HOH361      0.0000
    580 O          11.0770  -11.9220    3.9780 O.3     361 HOH362      0.0000
    581 H1         10.1270  -11.9220    3.9780 H       361 HOH362      0.0000
    582 H2         11.3221  -11.0042    3.9780 H       361 HOH362      0.0000
    583 O          21.5400  -22.5420   14.0950 O.3     362 HOH363      0.0000
    584 H1         20.5900  -22.5420   14.0950 H       362 HOH363      0.0000
    585 H2         21.7851  -21.6242   14.0950 H       362 HOH363      0.0000
    586 O          22.1930  -13.0660    9.7200 O.3     363 HOH364      0.0000
    587 H1         21.2430  -13.0660    9.7200 H       363 HOH364      0.0000
    588 H2         22.4381  -12.1482    9.7200 H       363 HOH364      0.0000
    589 O          14.3150   -2.3050  -23.8160 O.3     364 HOH365      0.0000
    590 H1         13.3650   -2.3050  -23.8160 H       364 HOH365      0.0000
    591 H2         14.5601   -1.3872  -23.8160 H       364 HOH365      0.0000
    592 O          18.9140  -22.4190   13.8940 O.3     365 HOH366      0.0000
    593 H1         17.9640  -22.4190   13.8940 H       365 HOH366      0.0000
    594 H2         19.1591  -21.5012   13.8940 H       365 HOH366      0.0000
    595 O          32.1350  -14.5490  -21.6650 O.3     366 HOH367      0.0000
    596 H1         31.1850  -14.5490  -21.6650 H       366 HOH367      0.0000
    597 H2         32.3801  -13.6312  -21.6650 H       366 HOH367      0.0000
    598 O          23.7630  -34.1070  -19.4410 O.3     367 HOH368      0.0000
    599 H1         22.8130  -34.1070  -19.4410 H       367 HOH368      0.0000
    600 H2         24.0081  -33.1892  -19.4410 H       367 HOH368      0.0000
    601 O          16.0360   -5.3510   -9.9980 O.3     368 HOH369      0.0000
    602 H1         15.0860   -5.3510   -9.9980 H       368 HOH369      0.0000
    603 H2         16.2811   -4.4332   -9.9980 H       368 HOH369      0.0000
    604 O          35.4950    0.3030  -17.8960 O.3     369 HOH370      0.0000
    605 H1         34.5450    0.3030  -17.8960 H       369 HOH370      0.0000
    606 H2         35.7401    1.2208  -17.8960 H       369 HOH370      0.0000
    607 O          20.0460   -6.6640  -32.0740 O.3     370 HOH371      0.0000
    608 H1         19.0960   -6.6640  -32.0740 H       370 HOH371      0.0000
    609 H2         20.2911   -5.7462  -32.0740 H       370 HOH371      0.0000
    610 O          30.4670  -31.1810  -12.1620 O.3     371 HOH372      0.0000
    611 H1         29.5170  -31.1810  -12.1620 H       371 HOH372      0.0000
    612 H2         30.7121  -30.2632  -12.1620 H       371 HOH372      0.0000
    613 O          21.2570   -5.5900   -9.1840 O.3     372 HOH373      0.0000
    614 H1         20.3070   -5.5900   -9.1840 H       372 HOH373      0.0000
    615 H2         21.5021   -4.6722   -9.1840 H       372 HOH373      0.0000
    616 O          24.1600   -9.1290   -8.6270 O.3     373 HOH374      0.0000
    617 H1         23.2100   -9.1290   -8.6270 H       373 HOH374      0.0000
    618 H2         24.4051   -8.2112   -8.6270 H       373 HOH374      0.0000
    619 O          20.7960   -3.9620  -32.0230 O.3     374 HOH375      0.0000
    620 H1         19.8460   -3.9620  -32.0230 H       374 HOH375      0.0000
    621 H2         21.0411   -3.0442  -32.0230 H       374 HOH375      0.0000
    622 O          15.0010  -21.5660   14.8150 O.3     375 HOH376      0.0000
    623 H1         14.0510  -21.5660   14.8150 H       375 HOH376      0.0000
    624 H2         15.2461  -20.6482   14.8150 H       375 HOH376      0.0000
    625 O          26.8840  -10.4400   -6.9930 O.3     376 HOH377      0.0000
    626 H1         25.9340  -10.4400   -6.9930 H       376 HOH377      0.0000
    627 H2         27.1291   -9.5222   -6.9930 H       376 HOH377      0.0000
    628 O          39.8920   -1.4610  -19.9870 O.3     377 HOH378      0.0000
    629 H1         38.9420   -1.4610  -19.9870 H       377 HOH378      0.0000
    630 H2         40.1371   -0.5432  -19.9870 H       377 HOH378      0.0000
    631 O          14.5480  -23.8240   15.1470 O.3     378 HOH379      0.0000
    632 H1         13.5980  -23.8240   15.1470 H       378 HOH379      0.0000
    633 H2         14.7931  -22.9062   15.1470 H       378 HOH379      0.0000
    634 O          31.5420   -4.4070  -30.9380 O.3     379 HOH380      0.0000
    635 H1         30.5920   -4.4070  -30.9380 H       379 HOH380      0.0000
    636 H2         31.7871   -3.4892  -30.9380 H       379 HOH380      0.0000
    637 O          14.0190  -34.4220    6.9190 O.3     380 HOH381      0.0000
    638 H1         13.0690  -34.4220    6.9190 H       380 HOH381      0.0000
    639 H2         14.2641  -33.5042    6.9190 H       380 HOH381      0.0000
    640 O          27.9740  -17.6010  -12.4340 O.3     381 HOH382      0.0000
    641 H1         27.0240  -17.6010  -12.4340 H       381 HOH382      0.0000
    642 H2         28.2191  -16.6832  -12.4340 H       381 HOH382      0.0000
    643 O          30.5090  -33.4180   -9.6990 O.3     382 HOH383      0.0000
    644 H1         29.5590  -33.4180   -9.6990 H       382 HOH383      0.0000
    645 H2         30.7541  -32.5002   -9.6990 H       382 HOH383      0.0000
    646 O          29.4780  -14.3530  -22.5160 O.3     383 HOH384      0.0000
    647 H1         28.5280  -14.3530  -22.5160 H       383 HOH384      0.0000
    648 H2         29.7231  -13.4352  -22.5160 H       383 HOH384      0.0000
    649 O          12.5250   -4.6190  -17.7610 O.3     384 HOH385      0.0000
    650 H1         11.5750   -4.6190  -17.7610 H       384 HOH385      0.0000
    651 H2         12.7701   -3.7012  -17.7610 H       384 HOH385      0.0000
    652 O          27.5140  -11.6100   -9.2470 O.3     385 HOH386      0.0000
    653 H1         26.5640  -11.6100   -9.2470 H       385 HOH386      0.0000
    654 H2         27.7591  -10.6922   -9.2470 H       385 HOH386      0.0000
    655 O          33.9080   -8.5070  -32.4430 O.3     386 HOH387      0.0000
    656 H1         32.9580   -8.5070  -32.4430 H       386 HOH387      0.0000
    657 H2         34.1531   -7.5892  -32.4430 H       386 HOH387      0.0000
    658 O          17.6280  -20.2030   14.2890 O.3     387 HOH388      0.0000
    659 H1         16.6780  -20.2030   14.2890 H       387 HOH388      0.0000
    660 H2         17.8731  -19.2852   14.2890 H       387 HOH388      0.0000
@<TRIPOS>BOND
     1    1    2 1
     2    1    3 1
     3    4    5 1
     4    4    6 1
     5    7    8 1
     6    7    9 1
     7   10   11 1
     8   10   12 1
     9   13   14 1
    10   13   15 1
    11   16   17 1
    12   16   18 1
    13   19   20 1
    14   19   21 1
    15   22   23 1
    16   22   24 1
    17   25   26 1
    18   25   27 1
    19   28   29 1
    20   28   30 1
    21   31   32 1
    22   31   33 1
    23   34   35 1
    24   34   36 1
    25   37   38 1
    26   37   39 1
    27   40   41 1
    28   40   42 1
    29   43   44 1
    30   43   45 1
    31   46   47 1
    32   46   48 1
    33   49   50 1
    34   49   51 1
    35   52   53 1
    36   52   54 1
    37   55   56 1
    38   55   57 1
    39   58   59 1
    40   58   60 1
    41   61   62 1
    42   61   63 1
    43   64   65 1
    44   64   66 1
    45   67   68 1
    46   67   69 1
    47   70   71 1
    48   70   72 1
    49   73   74 1
    50   73   75 1
    51   76   77 1
    52   76   78 1
    53   79   80 1
    54   79   81 1
    55   82   83 1
    56   82   84 1
    57   85   86 1
    58   85   87 1
    59   88   89 1
    60   88   90 1
    61   91   92 1
    62   91   93 1
    63   94   95 1
    64   94   96 1
    65   97   98 1
    66   97   99 1
    67  100  101 1
    68  100  102 1
    69  103  104 1
    70  103  105 1
    71  106  107 1
    72  106  108 1
    73  109  110 1
    74  109  111 1
    75  112  113 1
    76  112  114 1
    77  115  116 1
    78  115  117 1
    79  118  119 1
    80  118  120 1
    81  121  122 1
    82  121  123 1
    83  124  125 1
    84  124  126 1
    85  127  128 1
    86  127  129 1
    87  130  131 1
    88  130  132 1
    89  133  134 1
    90  133  135 1
    91  136  137 1
    92  136  138 1
    93  139  140 1
    94  139  141 1
    95  142  143 1
    96  142  144 1
    97  145  146 1
    98  145  147 1
    99  148  149 1
   100  148  150 1
   101  151  152 1
   102  151  153 1
   103  154  155 1
   104  154  156 1
   105  157  158 1
   106  157  159 1
   107  160  161 1
   108  160  162 1
   109  163  164 1
   110  163  165 1
   111  166  167 1
   112  166  168 1
   113  169  170 1
   114  169  171 1
   115  172  173 1
   116  172  174 1
   117  175  176 1
   118  175  177 1
   119  178  179 1
   120  178  180 1
   121  181  182 1
   122  181  183 1
   123  184  185 1
   124  184  186 1
   125  187  188 1
   126  187  189 1
   127  190  191 1
   128  190  192 1
   129  193  194 1
   130  193  195 1
   131  196  197 1
   132  196  198 1
   133  199  200 1
   134  199  201 1
   135  202  203 1
   136  202  204 1
   137  205  206 1
   138  205  207 1
   139  208  209 1
   140  208  210 1
   141  211  212 1
   142  211  213 1
   143  214  215 1
   144  214  216 1
   145  217  218 1
   146  217  219 1
   147  220  221 1
   148  220  222 1
   149  223  224 1
   150  223  225 1
   151  226  227 1
   152  226  228 1
   153  229  230 1
   154  229  231 1
   155  232  233 1
   156  232  234 1
   157  235  236 1
   158  235  237 1
   159  238  239 1
   160  238  240 1
   161  241  242 1
   162  241  243 1
   163  244  245 1
   164  244  246 1
   165  247  248 1
   166  247  249 1
   167  250  251 1
   168  250  252 1
   169  253  254 1
   170  253  255 1
   171  256  257 1
   172  256  258 1
   173  259  260 1
   174  259  261 1
   175  262  263 1
   176  262  264 1
   177  265  266 1
   178  265  267 1
   179  268  269 1
   180  268  270 1
   181  271  272 1
   182  271  273 1
   183  274  275 1
   184  274  276 1
   185  277  278 1
   186  277  279 1
   187  280  281 1
   188  280  282 1
   189  283  284 1
   190  283  285 1
   191  286  287 1
   192  286  288 1
   193  289  290 1
   194  289  291 1
   195  292  293 1
   196  292  294 1
   197  295  296 1
   198  295  297 1
   199  298  299 1
   200  298  300 1
   201  301  302 1
   202  301  303 1
   203  304  305 1
   204  304  306 1
   205  307  308 1
   206  307  309 1
   207  310  311 1
   208  310  312 1
   209  313  314 1
   210  313  315 1
   211  316  317 1
   212  316  318 1
   213  319  320 1
   214  319  321 1
   215  322  323 1
   216  322  324 1
   217  325  326 1
   218  325  327 1
   219  328  329 1
   220  328  330 1
   221  331  332 1
   222  331  333 1
   223  334  335 1
   224  334  336 1
   225  337  338 1
   226  337  339 1
   227  340  341 1
   228  340  342 1
   229  343  344 1
   230  343  345 1
   231  346  347 1
   232  346  348 1
   233  349  350 1
   234  349  351 1
   235  352  353 1
   236  352  354 1
   237  355  356 1
   238  355  357 1
   239  358  359 1
   240  358  360 1
   241  361  362 1
   242  361  363 1
   243  364  365 1
   244  364  366 1
   245  367  368 1
   246  367  369 1
   247  370  371 1
   248  370  372 1
   249  373  374 1
   250  373  375 1
   251  376  377 1
   252  376  378 1
   253  379  380 1
   254  379  381 1
   255  382  383 1
   256  382  384 1
   257  385  386 1
   258  385  387 1
   259  388  389 1
   260  388  390 1
   261  391  392 1
   262  391  393 1
   263  394  395 1
   264  394  396 1
   265  397  398 1
   266  397  399 1
   267  400  401 1
   268  400  402 1
   269  403  404 1
   270  403  405 1
   271  406  407 1
   272  406  408 1
   273  409  410 1
   274  409  411 1
   275  412  413 1
   276  412  414 1
   277  415  416 1
   278  415  417 1
   279  418  419 1
   280  418  420 1
   281  421  422 1
   282  421  423 1
   283  424  425 1
   284  424  426 1
   285  427  428 1
   286  427  429 1
   287  430  431 1
   288  430  432 1
   289  433  434 1
   290  433  435 1
   291  436  437 1
   292  436  438 1
   293  439  440 1
   294  439  441 1
   295  442  443 1
   296  442  444 1
   297  445  446 1
   298  445  447 1
   299  448  449 1
   300  448  450 1
   301  451  452 1
   302  451  453 1
   303  454  455 1
   304  454  456 1
   305  457  458 1
   306  457  459 1
   307  460  461 1
   308  460  462 1
   309  463  464 1
   310  463  465 1
   311  466  467 1
   312  466  468 1
   313  469  470 1
   314  469  471 1
   315  472  473 1
   316  472  474 1
   317  475  476 1
   318  475  477 1
   319  478  479 1
   320  478  480 1
   321  481  482 1
   322  481  483 1
   323  484  485 1
   324  484  486 1
   325  487  488 1
   326  487  489 1
   327  490  491 1
   328  490  492 1
   329  493  494 1
   330  493  495 1
   331  496  497 1
   332  496  498 1
   333  499  500 1
   334  499  501 1
   335  502  503 1
   336  502  504 1
   337  505  506 1
   338  505  507 1
   339  508  509 1
   340  508  510 1
   341  511  512 1
   342  511  513 1
   343  514  515 1
   344  514  516 1
   345  517  518 1
   346  517  519 1
   347  520  521 1
   348  520  522 1
   349  523  524 1
   350  523  525 1
   351  526  527 1
   352  526  528 1
   353  529  530 1
   354  529  531 1
   355  532  533 1
   356  532  534 1
   357  535  536 1
   358  535  537 1
   359  538  539 1
   360  538  540 1
   361  541  542 1
   362  541  543 1
   363  544  545 1
   364  544  546 1
   365  547  548 1
   366  547  549 1
   367  550  551 1
   368  550  552 1
   369  553  554 1
   370  553  555 1
   371  556  557 1
   372  556  558 1
   373  559  560 1
   374  559  561 1
   375  562  563 1
   376  562  564 1
   377  565  566 1
   378  565  567 1
   379  568  569 1
   380  568  570 1
   381  571  572 1
   382  571  573 1
   383  574  575 1
   384  574  576 1
   385  577  578 1
   386  577  579 1
   387  580  581 1
   388  580  582 1
   389  583  584 1
   390  583  585 1
   391  586  587 1
   392  586  588 1
   393  589  590 1
   394  589  591 1
   395  592  593 1
   396  592  594 1
   397  595  596 1
   398  595  597 1
   399  598  599 1
   400  598  600 1
   401  601  602 1
   402  601  603 1
   403  604  605 1
   404  604  606 1
   405  607  608 1
   406  607  609 1
   407  610  611 1
   408  610  612 1
   409  613  614 1
   410  613  615 1
   411  616  617 1
   412  616  618 1
   413  619  620 1
   414  619  621 1
   415  622  623 1
   416  622  624 1
   417  625  626 1
   418  625  627 1
   419  628  629 1
   420  628  630 1
   421  631  632 1
   422  631  633 1
   423  634  635 1
   424  634  636 1
   425  637  638 1
   426  637  639 1
   427  640  641 1
   428  640  642 1
   429  643  644 1
   430  643  645 1
   431  646  647 1
   432  646  648 1
   433  649  650 1
   434  649  651 1
   435  652  653 1
   436  652  654 1
   437  655  656 1
   438  655  657 1
   439  658  659 1
   440  658  660 1
@<TRIPOS>SUBSTRUCTURE
168 HOH169 1
169 HOH170 4
170 HOH171 7
171 HOH172 10
172 HOH173 13
173 HOH174 16
174 HOH175 19
175 HOH176 22
176 HOH177 25
177 HOH178 28
178 HOH179 31
179 HOH180 34
180 HOH181 37
181 HOH182 40
182 HOH183 43
183 HOH184 46
184 HOH185 49
185 HOH186 52
186 HOH187 55
187 HOH188 58
188 HOH189 61
189 HOH190 64
190 HOH191 67
191 HOH192 70
192 HOH193 73
193 HOH194 76
194 HOH195 79
195 HOH196 82
196 HOH197 85
197 HOH198 88
198 HOH199 91
199 HOH200 94
200 HOH201 97
201 HOH202 100
202 HOH203 103
203 HOH204 106
204 HOH205 109
205 HOH206 112
206 HOH207 115
207 HOH208 118
208 HOH209 121
209 HOH210 124
210 HOH211 127
211 HOH212 130
212 HOH213 133
213 HOH214 136
214 HOH215 139
215 HOH216 142
216 HOH217 145
217 HOH218 148
218 HOH219 151
219 HOH220 154
220 HOH221 157
221 HOH222 160
222 HOH223 163
223 HOH224 166
224 HOH225 169
225 HOH226 172
226 HOH227 175
227 HOH228 178
228 HOH229 181
229 HOH230 184
230 HOH231 187
231 HOH232 190
232 HOH233 193
233 HOH234 196
234 HOH235 199
235 HOH236 202
236 HOH237 205
237 HOH238 208
238 HOH239 211
239 HOH240 214
240 HOH241 217
241 HOH242 220
242 HOH243 223
243 HOH244 226
244 HOH245 229
245 HOH246 232
246 HOH247 235
247 HOH248 238
248 HOH249 241
249 HOH250 244
250 HOH251 247
251 HOH252 250
252 HOH253 253
253 HOH254 256
254 HOH255 259
255 HOH256 262
256 HOH257 265
257 HOH258 268
258 HOH259 271
259 HOH260 274
260 HOH261 277
261 HOH262 280
262 HOH263 283
263 HOH264 286
264 HOH265 289
265 HOH266 292
266 HOH267 295
267 HOH268 298
268 HOH269 301
269 HOH270 304
270 HOH271 307
271 HOH272 310
272 HOH273 313
273 HOH274 316
274 HOH275 319
275 HOH276 322
276 HOH277 325
277 HOH278 328
278 HOH279 331
279 HOH280 334
280 HOH281 337
281 HOH282 340
282 HOH283 343
283 HOH284 346
284 HOH285 349
285 HOH286 352
286 HOH287 355
287 HOH288 358
288 HOH289 361
289 HOH290 364
290 HOH291 367
291 HOH292 370
292 HOH293 373
293 HOH294 376
294 HOH295 379
295 HOH296 382
296 HOH297 385
297 HOH298 388
298 HOH299 391
299 HOH300 394
300 HOH301 397
301 HOH302 400
302 HOH303 403
303 HOH304 406
304 HOH305 409
305 HOH306 412
306 HOH307 415
307 HOH308 418
308 HOH309 421
309 HOH310 424
310 HOH311 427
311 HOH312 430
312 HOH313 433
313 HOH314 436
314 HOH315 439
315 HOH316 442
316 HOH317 445
317 HOH318 448
318 HOH319 451
319 HOH320 454
320 HOH321 457
321 HOH322 460
322 HOH323 463
323 HOH324 466
324 HOH325 469
325 HOH326 472
326 HOH327 475
327 HOH328 478
328 HOH329 481
329 HOH330 484
330 HOH331 487
331 HOH332 490
332 HOH333 493
333 HOH334 496
334 HOH335 499
335 HOH336 502
336 HOH337 505
337 HOH338 508
338 HOH339 511
339 HOH340 514
340 HOH341 517
341 HOH342 520
342 HOH343 523
343 HOH344 526
344 HOH345 529
345 HOH346 532
346 HOH347 535
347 HOH348 538
348 HOH349 541
349 HOH350 544
350 HOH351 547
351 HOH352 550
352 HOH353 553
353 HOH354 556
354 HOH355 559
355 HOH356 562
356 HOH357 565
357 HOH358 568
358 HOH359 571
359 HOH360 574
360 HOH361 577
361 HOH362 580
362 HOH363 583
363 HOH364 586
364 HOH365 589
365 HOH366 592
366 HOH367 595
367 HOH368 598
368 HOH369 601
369 HOH370 604
370 HOH371 607
371 HOH372 610
372 HOH373 613
373 HOH374 616
374 HOH375 619
375 HOH376 622
376 HOH377 625
377 HOH378 628
378 HOH379 631
379 HOH380 634
380 HOH381 637
381 HOH382 640
382 HOH383 643
383 HOH384 646
384 HOH385 649
385 HOH386 652
386 HOH387 655
387 HOH388 658
@<TRIPOS>COMMENT


